data_image0
_chemical_formula_structural       AlAsAlAsAlAsAlAsAlAsAlAsGaAsGaAsGaAsGaAsAlAsAlAsAlAsAlAsAlAsAlAsAlAsAlAsAlAsAlAsAlAsAlAsGaAsGaAsGaAsGaAsAlAsAlAsAlAsAlAsAlAsAlAsAlAsAlAsAlAsAlAsAlAsAlAsGaAsGaAsGaAsGaAsAlAsAlAsAlAsAlAsAlAsAlAsAlAsAlAsAlAsAlAsAlAsAlAsGaAsGaAsGaAsGaAsAlAsAlAsAlAsAlAsAlAsAlAs
_chemical_formula_sum              "Al48 As64 Ga16"
_cell_length_a       11.3074
_cell_length_b       11.3074
_cell_length_c       106.218925
_cell_angle_alpha    90.0
_cell_angle_beta     90.0
_cell_angle_gamma    90.0

_space_group_name_H-M_alt    "P 1"
_space_group_IT_number       1

loop_
  _space_group_symop_operation_xyz
  'x, y, z'

loop_
  _atom_site_type_symbol
  _atom_site_label
  _atom_site_symmetry_multiplicity
  _atom_site_fract_x
  _atom_site_fract_y
  _atom_site_fract_z
  _atom_site_occupancy
  Al  Al1       1.0  0.0  0.0  0.09414518175551109  1.0000
  As  As1       1.0  0.12499999999999999  0.12499999999999999  0.10745189710778941  1.0000
  Al  Al2       1.0  0.0  0.0  0.1473720431646244  1.0000
  As  As2       1.0  0.12499999999999999  0.12499999999999999  0.16067875851690272  1.0000
  Al  Al3       1.0  0.0  0.0  0.2005989045737377  1.0000
  As  As3       1.0  0.12499999999999999  0.12499999999999999  0.213905619926016  1.0000
  Al  Al4       1.0  0.0  0.0  0.253825765982851  1.0000
  As  As4       1.0  0.12499999999999999  0.12499999999999999  0.2671324813351293  1.0000
  Al  Al5       1.0  0.0  0.0  0.3070526273919643  1.0000
  As  As5       1.0  0.12499999999999999  0.12499999999999999  0.3203593427442426  1.0000
  Al  Al6       1.0  0.0  0.0  0.36027948880107763  1.0000
  As  As6       1.0  0.12499999999999999  0.12499999999999999  0.3735862041533559  1.0000
  Ga  Ga1       1.0  0.0  0.0  0.4135063502101909  1.0000
  As  As7       1.0  0.12499999999999999  0.12499999999999999  0.4268130655624692  1.0000
  Ga  Ga2       1.0  0.0  0.0  0.4667332116193042  1.0000
  As  As8       1.0  0.12499999999999999  0.12499999999999999  0.4800399269715825  1.0000
  Ga  Ga3       1.0  0.0  0.0  0.5199600730284175  1.0000
  As  As9       1.0  0.12499999999999999  0.12499999999999999  0.5332667883806957  1.0000
  Ga  Ga4       1.0  0.0  0.0  0.5731869344375308  1.0000
  As  As10      1.0  0.12499999999999999  0.12499999999999999  0.5864936497898091  1.0000
  Al  Al7       1.0  0.0  0.0  0.6264137958466441  1.0000
  As  As11      1.0  0.12499999999999999  0.12499999999999999  0.6397205111989224  1.0000
  Al  Al8       1.0  0.0  0.0  0.6796406572557574  1.0000
  As  As12      1.0  0.12499999999999999  0.12499999999999999  0.6929473726080357  1.0000
  Al  Al9       1.0  0.0  0.0  0.7328675186648707  1.0000
  As  As13      1.0  0.12499999999999999  0.12499999999999999  0.746174234017149  1.0000
  Al  Al10      1.0  0.0  0.0  0.7860943800739839  1.0000
  As  As14      1.0  0.12499999999999999  0.12499999999999999  0.7994010954262624  1.0000
  Al  Al11      1.0  0.0  0.0  0.8393212414830973  1.0000
  As  As15      1.0  0.12499999999999999  0.12499999999999999  0.8526279568353756  1.0000
  Al  Al12      1.0  0.0  0.0  0.8925481028922105  1.0000
  As  As16      1.0  0.12499999999999999  0.12499999999999999  0.905854818244489  1.0000
  Al  Al13      1.0  0.0  0.49999999999999994  0.09414518175551109  1.0000
  As  As17      1.0  0.12499999999999999  0.625  0.10745189710778941  1.0000
  Al  Al14      1.0  0.0  0.49999999999999994  0.1473720431646244  1.0000
  As  As18      1.0  0.12499999999999999  0.625  0.16067875851690272  1.0000
  Al  Al15      1.0  0.0  0.49999999999999994  0.2005989045737377  1.0000
  As  As19      1.0  0.12499999999999999  0.625  0.213905619926016  1.0000
  Al  Al16      1.0  0.0  0.49999999999999994  0.253825765982851  1.0000
  As  As20      1.0  0.12499999999999999  0.625  0.2671324813351293  1.0000
  Al  Al17      1.0  0.0  0.49999999999999994  0.3070526273919643  1.0000
  As  As21      1.0  0.12499999999999999  0.625  0.3203593427442426  1.0000
  Al  Al18      1.0  0.0  0.49999999999999994  0.36027948880107763  1.0000
  As  As22      1.0  0.12499999999999999  0.625  0.3735862041533559  1.0000
  Ga  Ga5       1.0  0.0  0.49999999999999994  0.4135063502101909  1.0000
  As  As23      1.0  0.12499999999999999  0.625  0.4268130655624692  1.0000
  Ga  Ga6       1.0  0.0  0.49999999999999994  0.4667332116193042  1.0000
  As  As24      1.0  0.12499999999999999  0.625  0.4800399269715825  1.0000
  Ga  Ga7       1.0  0.0  0.49999999999999994  0.5199600730284175  1.0000
  As  As25      1.0  0.12499999999999999  0.625  0.5332667883806957  1.0000
  Ga  Ga8       1.0  0.0  0.49999999999999994  0.5731869344375308  1.0000
  As  As26      1.0  0.12499999999999999  0.625  0.5864936497898091  1.0000
  Al  Al19      1.0  0.0  0.49999999999999994  0.6264137958466441  1.0000
  As  As27      1.0  0.12499999999999999  0.625  0.6397205111989224  1.0000
  Al  Al20      1.0  0.0  0.49999999999999994  0.6796406572557574  1.0000
  As  As28      1.0  0.12499999999999999  0.625  0.6929473726080357  1.0000
  Al  Al21      1.0  0.0  0.49999999999999994  0.7328675186648707  1.0000
  As  As29      1.0  0.12499999999999999  0.625  0.746174234017149  1.0000
  Al  Al22      1.0  0.0  0.49999999999999994  0.7860943800739839  1.0000
  As  As30      1.0  0.12499999999999999  0.625  0.7994010954262624  1.0000
  Al  Al23      1.0  0.0  0.49999999999999994  0.8393212414830973  1.0000
  As  As31      1.0  0.12499999999999999  0.625  0.8526279568353756  1.0000
  Al  Al24      1.0  0.0  0.49999999999999994  0.8925481028922105  1.0000
  As  As32      1.0  0.12499999999999999  0.625  0.905854818244489  1.0000
  Al  Al25      1.0  0.49999999999999994  0.0  0.09414518175551109  1.0000
  As  As33      1.0  0.625  0.12499999999999999  0.10745189710778941  1.0000
  Al  Al26      1.0  0.49999999999999994  0.0  0.1473720431646244  1.0000
  As  As34      1.0  0.625  0.12499999999999999  0.16067875851690272  1.0000
  Al  Al27      1.0  0.49999999999999994  0.0  0.2005989045737377  1.0000
  As  As35      1.0  0.625  0.12499999999999999  0.213905619926016  1.0000
  Al  Al28      1.0  0.49999999999999994  0.0  0.253825765982851  1.0000
  As  As36      1.0  0.625  0.12499999999999999  0.2671324813351293  1.0000
  Al  Al29      1.0  0.49999999999999994  0.0  0.3070526273919643  1.0000
  As  As37      1.0  0.625  0.12499999999999999  0.3203593427442426  1.0000
  Al  Al30      1.0  0.49999999999999994  0.0  0.36027948880107763  1.0000
  As  As38      1.0  0.625  0.12499999999999999  0.3735862041533559  1.0000
  Ga  Ga9       1.0  0.49999999999999994  0.0  0.4135063502101909  1.0000
  As  As39      1.0  0.625  0.12499999999999999  0.4268130655624692  1.0000
  Ga  Ga10      1.0  0.49999999999999994  0.0  0.4667332116193042  1.0000
  As  As40      1.0  0.625  0.12499999999999999  0.4800399269715825  1.0000
  Ga  Ga11      1.0  0.49999999999999994  0.0  0.5199600730284175  1.0000
  As  As41      1.0  0.625  0.12499999999999999  0.5332667883806957  1.0000
  Ga  Ga12      1.0  0.49999999999999994  0.0  0.5731869344375308  1.0000
  As  As42      1.0  0.625  0.12499999999999999  0.5864936497898091  1.0000
  Al  Al31      1.0  0.49999999999999994  0.0  0.6264137958466441  1.0000
  As  As43      1.0  0.625  0.12499999999999999  0.6397205111989224  1.0000
  Al  Al32      1.0  0.49999999999999994  0.0  0.6796406572557574  1.0000
  As  As44      1.0  0.625  0.12499999999999999  0.6929473726080357  1.0000
  Al  Al33      1.0  0.49999999999999994  0.0  0.7328675186648707  1.0000
  As  As45      1.0  0.625  0.12499999999999999  0.746174234017149  1.0000
  Al  Al34      1.0  0.49999999999999994  0.0  0.7860943800739839  1.0000
  As  As46      1.0  0.625  0.12499999999999999  0.7994010954262624  1.0000
  Al  Al35      1.0  0.49999999999999994  0.0  0.8393212414830973  1.0000
  As  As47      1.0  0.625  0.12499999999999999  0.8526279568353756  1.0000
  Al  Al36      1.0  0.49999999999999994  0.0  0.8925481028922105  1.0000
  As  As48      1.0  0.625  0.12499999999999999  0.905854818244489  1.0000
  Al  Al37      1.0  0.49999999999999994  0.49999999999999994  0.09414518175551109  1.0000
  As  As49      1.0  0.625  0.625  0.10745189710778941  1.0000
  Al  Al38      1.0  0.49999999999999994  0.49999999999999994  0.1473720431646244  1.0000
  As  As50      1.0  0.625  0.625  0.16067875851690272  1.0000
  Al  Al39      1.0  0.49999999999999994  0.49999999999999994  0.2005989045737377  1.0000
  As  As51      1.0  0.625  0.625  0.213905619926016  1.0000
  Al  Al40      1.0  0.49999999999999994  0.49999999999999994  0.253825765982851  1.0000
  As  As52      1.0  0.625  0.625  0.2671324813351293  1.0000
  Al  Al41      1.0  0.49999999999999994  0.49999999999999994  0.3070526273919643  1.0000
  As  As53      1.0  0.625  0.625  0.3203593427442426  1.0000
  Al  Al42      1.0  0.49999999999999994  0.49999999999999994  0.36027948880107763  1.0000
  As  As54      1.0  0.625  0.625  0.3735862041533559  1.0000
  Ga  Ga13      1.0  0.49999999999999994  0.49999999999999994  0.4135063502101909  1.0000
  As  As55      1.0  0.625  0.625  0.4268130655624692  1.0000
  Ga  Ga14      1.0  0.49999999999999994  0.49999999999999994  0.4667332116193042  1.0000
  As  As56      1.0  0.625  0.625  0.4800399269715825  1.0000
  Ga  Ga15      1.0  0.49999999999999994  0.49999999999999994  0.5199600730284175  1.0000
  As  As57      1.0  0.625  0.625  0.5332667883806957  1.0000
  Ga  Ga16      1.0  0.49999999999999994  0.49999999999999994  0.5731869344375308  1.0000
  As  As58      1.0  0.625  0.625  0.5864936497898091  1.0000
  Al  Al43      1.0  0.49999999999999994  0.49999999999999994  0.6264137958466441  1.0000
  As  As59      1.0  0.625  0.625  0.6397205111989224  1.0000
  Al  Al44      1.0  0.49999999999999994  0.49999999999999994  0.6796406572557574  1.0000
  As  As60      1.0  0.625  0.625  0.6929473726080357  1.0000
  Al  Al45      1.0  0.49999999999999994  0.49999999999999994  0.7328675186648707  1.0000
  As  As61      1.0  0.625  0.625  0.746174234017149  1.0000
  Al  Al46      1.0  0.49999999999999994  0.49999999999999994  0.7860943800739839  1.0000
  As  As62      1.0  0.625  0.625  0.7994010954262624  1.0000
  Al  Al47      1.0  0.49999999999999994  0.49999999999999994  0.8393212414830973  1.0000
  As  As63      1.0  0.625  0.625  0.8526279568353756  1.0000
  Al  Al48      1.0  0.49999999999999994  0.49999999999999994  0.8925481028922105  1.0000
  As  As64      1.0  0.625  0.625  0.905854818244489  1.0000
